Watershed atmospheric deposition file      .atm file 1/6/2024 12:00:00 AM ArcSWAT 2012.10_8.26




             0.000     0.000     0.000     0.000
