1
    SWAT Jan 13 2025   VER kalcic-nifafrozen                                                             0/ 0/   0      0: 0: 0

    General Input/Output section (file.cio):                                        
    8/10/2023 12:00:00 AM ARCGIS-SWAT interface AV                                  
                                                                                    


LULC  HRU       GIS  SUB  MGT  MON   AREAkm2  PRECIPmm SNOFALLmm SNOMELTmm     IRRmm     PETmm      ETmm SW_INITmm  SW_ENDmm    PERCmm GW_RCHGmm DA_RCHGmm   REVAPmm  SA_IRRmm  DA_IRRmm   SA_STmm   DA_STmm SURQGENmm SURQCNTmm   TLOSSmm LATQGENmm    GW_Qmm    WYLDmm   DAILYCN TMP_AVdgC  TMP_MXdC  TMP_MNdC SOL_TMPdC SOLRMJ/m2  SYLDt/ha  USLEt/ha SUR_TMPdC   QTILEmm   VWC10mm   VWC20mm   VWC50mm  wattblmm  tmpofly2
CORN    1 000010001    1    0    1.61900E-01     0.000     0.000     0.000     0.000     1.057     0.439   448.640   447.965     0.000     0.186     0.009     0.021     0.000     0.000  1001.532  2000.717     0.000     0.006     0.000     0.115     0.093     1.741    97.946    -3.050    -1.100    -5.000     1.972     7.654     0.000     0.000     1.637     1.520     0.400     0.434     0.458   894.559     1.972
CORN    1 000010001    1    0    2.61900E-01     0.000     0.000     0.000     0.000     0.948     0.374   447.965   447.467     0.000     0.180     0.009     0.019     0.000     0.000  1001.587  2000.719     0.000     0.000     0.000     0.115     0.097     1.407    97.932    -3.050     0.000    -6.100     0.734     7.975     0.000     0.000     0.382     1.187     0.399     0.433     0.458   899.232     0.734
CORN    1 000010001    1    0    3.61900E-01     0.000     0.000     0.000     0.000     1.175     0.439   447.467   446.922     0.000     0.174     0.009     0.024     0.000     0.000  1001.629  2000.721     0.000     0.000     0.000     0.115     0.100     1.147    97.923    -1.100     2.200    -4.400     0.266     6.505     0.000     0.000    -0.051     0.925     0.398     0.433     0.458   901.697     0.266
CORN    1 000010001    1    0    4.61900E-01     0.300     0.300     0.000     0.000     0.107     0.037   446.922   446.781     0.000     0.168     0.008     0.002     0.000     0.000  1001.684  2000.722     0.000     0.000     0.000     0.114     0.103     0.945    98.833    -3.050    -1.100    -5.000    -0.572     7.074     0.000     0.000    -0.915     0.720     0.398     0.433     0.458   901.697    -0.572
CORN    1 000010001    1    0    5.61900E-01     0.000     0.000     0.000     0.000     0.094     0.032   446.781   446.645     0.000     0.163     0.008     0.002     0.000     0.000  1001.732  2000.723     0.000     0.000     0.000     0.114     0.105     0.788    98.833    -6.700    -1.700   -11.700    -2.215     4.679     0.000     0.000    -2.641     0.561     0.398     0.433     0.458   901.697    -2.215
CORN    1 000010001    1    0    6.61900E-01     0.000     0.000     0.000     0.000     0.695     0.238   446.645   446.305     0.000     0.158     0.008     0.014     0.000     0.000  1001.760  2000.723     0.000     0.000     0.000     0.114     0.107     0.665    98.833    -5.850    -0.600   -11.100    -2.003     4.527     0.000     0.000    -2.357     0.437     0.397     0.433     0.458   901.697    -2.003
CORN    1 000010001    1    0    7.61900E-01     0.000     0.000     0.028     0.000     0.363     0.121   446.305   446.110     0.000     0.153     0.008     0.007     0.000     0.000  1001.789  2000.724     0.000     0.000     0.000     0.113     0.109     0.570    98.833    -1.150     4.400    -6.700    -0.251     4.977     0.000     0.000    -0.435     0.340     0.397     0.433     0.458   901.697    -0.251
CORN    1 000010001    1    0    8.61900E-01     0.500     0.000     0.078     0.000     0.449     0.209   446.110   446.573     0.000     0.148     0.007     0.009     0.000     0.000  1001.810  2000.724     0.000     0.000     0.000     0.113     0.111     0.496    97.895     2.500     8.300    -3.300     1.137     4.163     0.000     0.000     1.060     0.265     0.400     0.434     0.458   911.941     1.137
CORN    1 000010001    1    0    9.61900E-01    10.200     0.000     0.000     0.000     0.503     0.258   446.573   450.960     2.558     0.225     0.011     0.010     0.000     0.000  1001.898  2000.728     0.654     0.612     0.000     0.118     0.115     1.605    97.904     3.850     9.400    -1.700     3.338     0.550     0.042     0.019     3.425     0.752     0.402     0.434     0.458   819.878     3.338
CORN    1 000010001    1    0   10.61900E-01    23.900    23.900     0.000     0.000     0.216     0.108   450.960   452.029     0.000     0.217     0.011     0.004     0.000     0.000  1001.980  2000.731     0.000     0.039     0.000     0.119     0.120     0.870    98.833    -8.350    -1.100   -15.600    -3.027     2.141     0.000     0.000    -3.503     0.585     0.414     0.434     0.458   819.878    -3.027
CORN    1 000010001    1    0   11.61900E-01     1.500     1.500     0.000     0.000     0.000     0.000   452.029   450.474     0.000     0.210     0.011     0.000     0.000     0.000  1002.057  2000.734     0.000     0.003     0.000     0.120     0.123     1.018    98.012    -8.650    -1.700   -15.600     0.947     3.655     0.000     0.000    -7.739     0.764     0.402     0.434     0.458   849.785     0.947
CORN    1 000010001    1    0   12.61900E-01     2.500     2.500     0.000     0.000     0.319     0.160   450.474   449.731     0.000     0.204     0.010     0.006     0.000     0.000  1002.117  2000.737     0.000     0.000     0.000     0.120     0.127     0.966    97.982   -12.500    -5.600   -19.400     0.818     0.948     0.000     0.000   -11.985     0.712     0.402     0.434     0.458   878.802     0.818
CORN    1 000010001    1    0   13.61900E-01     1.000     1.000     0.000     0.000     0.000     0.000   449.731   449.422     0.000     0.197     0.010     0.000     0.000     0.000  1002.175  2000.739     0.000     0.000     0.000     0.120     0.130     0.855    97.967   -11.650    -3.900   -19.400     1.080     5.823     0.000     0.000   -12.166     0.599     0.402     0.434     0.458   891.560     1.080
CORN    1 000010001    1    0   14.61900E-01     0.500     0.000     0.908     0.000     0.779     0.400   449.422   449.944     0.488     0.207     0.010     0.016     0.000     0.000  1002.223  2000.742     0.000     0.000     0.000     0.120     0.133     0.784    97.961     1.100     6.100    -3.900     1.775     7.205     0.000     0.000    -5.539     0.524     0.402     0.434     0.458   889.006     1.775
CORN    1 000010001    1    0   15.61900E-01     0.000     0.000     2.405     0.000     1.543     0.793   449.944   450.755     0.000     0.200     0.010     0.031     0.000     0.000  1002.247  2000.745     0.269     0.252     0.000     0.122     0.135     1.231    97.972     2.500     6.100    -1.100     2.255     8.984     0.007     0.000    -5.149     0.714     0.402     0.434     0.458   850.128     2.255
CORN    1 000010001    1    0   16.61900E-01     5.800     5.800     0.000     0.000     0.152     0.076   450.755   450.071     0.000     0.194     0.010     0.003     0.000     0.000  1002.290  2000.747     0.000     0.016     0.000     0.122     0.138     0.949    97.987    -3.100    -0.600    -5.600     2.669     4.716     0.000     0.000    -4.513     0.665     0.402     0.434     0.458   880.137     2.669
CORN    1 000010001    1    0   17.61900E-01     0.000     0.000     0.000     0.000     0.129     0.065   450.071   449.712     0.000     0.188     0.009     0.003     0.000     0.000  1002.326  2000.749     0.000     0.001     0.000     0.122     0.140     0.829    97.974   -11.400    -5.000   -17.800     2.523     7.230     0.000     0.000   -10.895     0.559     0.402     0.434     0.458   892.172     2.523
CORN    1 000010001    1    0   18.61900E-01     0.000     0.000     0.000     0.000     0.272     0.136   449.712   449.423     0.000     0.182     0.009     0.005     0.000     0.000  1002.352  2000.750     0.000     0.000     0.000     0.121     0.141     0.715    97.967   -14.200   -10.600   -17.800     2.345     6.499     0.000     0.000   -13.517     0.445     0.402     0.434     0.458   898.004     2.345
CORN    1 000010001    1    0   19.61900E-01     0.000     0.000     0.000     0.000     0.717     0.358   449.423   448.959     0.000     0.176     0.009     0.014     0.000     0.000  1002.363  2000.751     0.000     0.000     0.000     0.121     0.142     0.617    97.961   -12.500    -7.800   -17.200     2.421     3.592     0.000     0.000   -12.230     0.347     0.401     0.434     0.458   901.036     2.421
CORN    1 000010001    1    0   20.61900E-01     0.000     0.000     0.000     0.000     0.027     0.014   448.959   448.841     0.000     0.170     0.009     0.001     0.000     0.000  1002.381  2000.752     0.000     0.000     0.000     0.120     0.143     0.541    97.952   -11.400    -7.200   -15.600     2.507     6.060     0.000     0.000   -11.873     0.270     0.401     0.434     0.458   903.132     2.507
CORN    1 000010001    1    0   21.61900E-01     0.800     0.800     0.000     0.000     0.000     0.000   448.841   448.737     0.000     0.165     0.008     0.000     0.000     0.000  1002.393  2000.753     0.000     0.000     0.000     0.120     0.144     0.481    97.950    -8.900    -3.900   -13.900     2.749     5.007     0.000     0.000    -9.698     0.210     0.401     0.434     0.458   905.207     2.749
CORN    1 000010001    1    0   22.61900E-01     0.000     0.000     0.000     0.000     0.000     0.000   448.737   448.634     0.000     0.160     0.008     0.000     0.000     0.000  1002.401  2000.753     0.000     0.000     0.000     0.119     0.144     0.435    97.948    -5.550    -3.900    -7.200     3.028     6.817     0.000     0.000    -8.153     0.164     0.401     0.434     0.458   907.261     3.028
CORN    1 000010001    1    0   23.61900E-01     0.000     0.000     0.000     0.000     0.582     0.289   448.634   448.244     0.000     0.155     0.008     0.012     0.000     0.000  1002.391  2000.754     0.000     0.000     0.000     0.118     0.144     0.398    97.946    -6.950    -2.800   -11.100     3.123     7.513     0.000     0.000    -9.122     0.128     0.401     0.434     0.458   909.294     3.123
CORN    1 000010001    1    0   24.61900E-01     0.000     0.000     0.000     0.000     0.817     0.394   448.244   447.749     0.000     0.150     0.007     0.016     0.000     0.000  1002.373  2000.753     0.000     0.000     0.000     0.118     0.144     0.369    97.938    -4.150     1.100    -9.400     3.396     6.334     0.000     0.000    -6.930     0.099     0.400     0.434     0.458   911.308     3.396
CORN    1 000010001    1    0   25.61900E-01     0.000     0.000     1.521     0.000     0.607     0.303   447.749   449.002     0.168     0.150     0.008     0.012     0.000     0.000  1002.359  2000.753     0.000     0.000     0.000     0.117     0.144     0.346    97.928     1.650     7.200    -3.900     3.894     6.489     0.000     0.000    -2.783     0.077     0.402     0.434     0.458   913.305     3.894
CORN    1 000010001    1    0   26.61900E-01     0.000     0.000     0.000     0.000     0.019     0.010   449.002   448.893     0.000     0.145     0.007     0.000     0.000     0.000  1002.353  2000.753     0.000     0.000     0.000     0.117     0.144     0.328    97.953    -3.050     0.600    -6.700     4.007     6.086     0.000     0.000    -4.609     0.060     0.402     0.434     0.458   915.279     4.007
CORN    1 000010001    1    0   27.61900E-01     0.000     0.000     0.000     0.000     0.118     0.059   448.893   448.736     0.000     0.141     0.007     0.002     0.000     0.000  1002.341  2000.753     0.000     0.000     0.000     0.116     0.143     0.314    97.951    -4.200    -1.700    -6.700     4.125     4.356     0.000     0.000    -4.813     0.047     0.402     0.434     0.458   917.233     4.125
CORN    1 000010001    1    0   28.61900E-01     0.000     0.000     2.116     0.000     0.597     0.310   448.736   450.119     0.070     0.139     0.007     0.012     0.000     0.000  1002.318  2000.752     0.035     0.032     0.000     0.118     0.143     0.436    97.948     0.550     6.100    -5.000     4.399     6.759     0.001     0.000    -2.945     0.136     0.402     0.434     0.458   881.758     4.399
CORN    1 000010001    1    0   29.61900E-01     0.300     0.300     0.000     0.000     0.000     0.000   450.119   449.844     0.000     0.134     0.007     0.000     0.000     0.000  1002.303  2000.751     0.000     0.002     0.000     0.118     0.142     0.412    97.975    -1.950     1.100    -5.000     4.526     4.975     0.000     0.000    -3.128     0.142     0.402     0.434     0.458   892.928     4.526
CORN    1 000010001    1    0   30.61900E-01     0.000     0.000    12.974     0.000     0.720     0.371   449.844   451.337     0.003     0.130     0.007     0.014     0.000     0.000  1002.271  2000.750     8.256     7.728     0.000     0.123     0.141     8.758    97.970     4.700    14.400    -5.000     5.038     5.030     0.555     0.000     1.333     0.759     0.402     0.434     0.458   808.251     5.038
CORN    1 000010001    1    0   31.61900E-01     0.000     0.000    13.753     0.000     1.362     0.667   451.337   450.888     0.003     0.126     0.006     0.027     0.000     0.000  1002.224  2000.749     9.018     8.935     0.000     0.129     0.140    10.735    97.999     3.600    14.400    -7.200     4.979     6.825     0.000     0.000     0.499     1.524     0.401     0.434     0.458   778.960     4.979
CORN    1 000010001    1    0   32.61900E-01     0.300     0.000     0.000     0.000     0.177     0.085   450.888   450.051     0.000     0.122     0.006     0.004     0.000     0.000  1002.197  2000.747     0.000     0.572     0.000     0.129     0.139     2.239    97.990     2.500     7.800    -2.800     4.214     5.706     0.000     0.000     4.089     1.392     0.402     0.434     0.458   864.710     4.214
CORN    1 000010001    1    0   33.61900E-01     0.000     0.000     0.000     0.000     1.685     0.814   450.051   448.773     0.000     0.118     0.006     0.034     0.000     0.000  1002.137  2000.746     0.000     0.037     0.000     0.128     0.138     1.472    97.974     7.200    13.300     1.100     4.891    10.099     0.000     0.000     4.840     1.161     0.401     0.434     0.458   885.536     4.891
CORN    1 000010001    1    0   34.61900E-01    21.100     0.000     0.000     0.000     0.271     0.130   448.773   451.340     1.154     0.151     0.008     0.005     0.000     0.000  1002.137  2000.746    13.412    12.556     0.000     0.134     0.138    14.522    97.949     5.250    13.300    -2.800     5.044     6.572     1.259     0.100     4.984     1.686     0.402     0.434     0.458   794.031     5.044
CORN    1 000010001    1    0   35.61900E-01     0.000     0.000     0.000     0.000     1.008     0.484   451.340   449.855     0.000     0.146     0.007     0.020     0.000     0.000  1002.118  2000.745     0.000     0.804     0.000     0.134     0.138     2.591    97.999    -5.550    -2.200    -8.900     2.576     8.929     0.000     0.000     2.318     1.507     0.401     0.434     0.458   866.402     2.576
CORN    1 000010001    1    0   36.61900E-01     0.000     0.000     0.000     0.000     1.301     0.632   449.855   448.777     0.000     0.142     0.007     0.026     0.000     0.000  1002.088  2000.745     0.000     0.051     0.000     0.133     0.138     1.578    97.970    -2.500     3.900    -8.900     1.532    10.375     0.000     0.000     1.269     1.247     0.400     0.434     0.458   886.218     1.532
CORN    1 000010001    1    0   37.61900E-01     0.000     0.000     0.000     0.000     0.579     0.246   448.777   448.307     0.000     0.137     0.007     0.012     0.000     0.000  1002.069  2000.745     0.000     0.003     0.000     0.132     0.138     1.278    97.949    -1.150     4.400    -6.700     0.967     9.201     0.000     0.000     0.712     0.997     0.400     0.434     0.458   895.051     0.967
CORN    1 000010001    1    0   38.61900E-01     0.000     0.000     0.000     0.000     1.682     0.710   448.307   447.479     0.000     0.133     0.007     0.034     0.000     0.000  1002.025  2000.744     0.000     0.000     0.000     0.132     0.137     1.055    97.939     4.700    10.000    -0.600     1.899     9.098     0.000     0.000     1.758     0.779     0.399     0.433     0.458   899.484     1.899
CORN    1 000010001    1    0   39.61900E-01     1.000     1.000     0.344     0.000     0.312     0.121   447.479   447.597     0.000     0.128     0.006     0.006     0.000     0.000  1002.004  2000.743     0.000     0.000     0.000     0.131     0.136     0.881    97.923    -0.550     3.900    -5.000     0.843     2.948     0.000     0.000     0.596     0.607     0.400     0.434     0.458   901.835     0.843
CORN    1 000010001    1    0   40.61900E-01     0.300     0.300     0.000     0.000     0.059     0.022   447.597   447.470     0.000     0.124     0.006     0.001     0.000     0.000  1001.986  2000.741     0.000     0.000     0.000     0.130     0.136     0.745    98.833    -7.800    -5.000   -10.600    -3.309     3.093     0.000     0.000    -3.858     0.472     0.400     0.434     0.458   901.835    -3.309
CORN    1 000010001    1    0   41.61900E-01     0.500     0.500     0.000     0.000     0.053     0.020   447.470   447.347     0.000     0.120     0.006     0.001     0.000     0.000  1001.965  2000.740     0.000     0.000     0.000     0.129     0.135     0.639    98.833   -11.950    -8.300   -15.600    -6.329     2.143     0.000     0.000    -7.017     0.368     0.400     0.434     0.458   901.835    -6.329
CORN    1 000010001    1    0   42.61900E-01     0.300     0.300     0.000     0.000     0.000     0.000   447.347   447.245     0.000     0.117     0.006     0.000     0.000     0.000  1001.942  2000.738     0.000     0.000     0.000     0.128     0.133     0.555    98.833   -10.000    -5.600   -14.400    -8.413     0.267     0.000     0.000    -9.204     0.287     0.400     0.434     0.458   901.835    -8.413
CORN    1 000010001    1    0   43.61900E-01     0.000     0.000     0.000     0.000     0.674     0.231   447.245   445.549     0.000     0.113     0.006     0.013     0.000     0.000  1001.904  2000.737     0.000     0.000     0.000     0.127     0.132     0.490    98.833   -12.250    -5.600   -18.900    -3.069     7.067     0.000     0.000    -3.400     0.223     0.392     0.434     0.458   901.835    -3.069
CORN    1 000010001    1    0   44.61900E-01     0.000     0.000     0.000     0.000     0.491     0.143   445.549   442.762     0.000     0.109     0.005     0.010     0.000     0.000  1001.867  2000.735     0.000     0.000     0.000     0.126     0.131     0.438    98.833   -13.350    -8.900   -17.800    -2.648     9.004     0.000     0.000    -2.945     0.174     0.374     0.434     0.458   901.835    -2.648
CORN    1 000010001    1    0   45.61900E-01     0.000     0.000     0.000     0.000     0.428     0.109   442.762   439.981     0.000     0.106     0.005     0.009     0.000     0.000  1001.829  2000.733     0.000     0.000     0.000     0.125     0.129     0.397    98.833    -9.400    -4.400   -14.400    -1.503     9.896     0.000     0.000    -1.695     0.135     0.359     0.429     0.458   901.835    -1.503
CORN    1 000010001    1    0   46.61900E-01     0.800     0.800     0.000     0.000     0.000     0.000   439.981   438.146     0.000     0.103     0.005     0.000     0.000     0.000  1001.799  2000.730     0.000     0.000     0.000     0.124     0.128     0.365    97.767    -2.200     0.600    -5.000     0.008     9.108     0.000     0.000    -0.070     0.105     0.352     0.423     0.458   916.020     0.008
CORN    1 000010001    1    0   47.61900E-01     0.000     0.000     0.000     0.000     0.516     0.123   438.146   438.270     0.000     0.099     0.005     0.010     0.000     0.000  1001.756  2000.728     0.000     0.000     0.000     0.123     0.126     0.339    98.833    -2.250    -0.600    -3.900    -0.124     9.256     0.000     0.000    -1.624     0.082     0.352     0.426     0.458   916.020    -0.124
CORN    1 000010001    1    0   48.61900E-01     0.300     0.300     0.000     0.000     0.000     0.000   438.270   438.333     0.000     0.096     0.005     0.000     0.000     0.000  1001.723  2000.725     0.000     0.000     0.000     0.123     0.125     0.318    98.833    -1.650     2.800    -6.100    -0.115     7.012     0.000     0.000    -1.619     0.064     0.353     0.427     0.458   916.020    -0.115
CORN    1 000010001    1    0   49.61900E-01     0.000     0.000     0.000     0.000     0.225     0.053   438.333   438.361     0.000     0.093     0.005     0.005     0.000     0.000  1001.684  2000.723     0.000     0.000     0.000     0.122     0.123     0.302    98.833   -11.731    -7.936   -15.526    -2.312     9.716     0.000     0.000    -7.042     0.050     0.353     0.429     0.458   916.020    -2.312
CORN    1 000010001    1    0   50.61900E-01     0.000     0.000     2.856     0.000     2.430     0.539   438.361   437.727     0.000     0.090     0.005     0.049     0.000     0.000  1001.600  2000.720     0.000     0.000     0.000     0.121     0.121     0.288    97.732    10.550    16.700     4.400     1.135    13.742     0.000     0.000     1.293     0.039     0.351     0.434     0.458   923.691     1.135
CORN    1 000010001    1    0   51.61900E-01     0.000     0.000     0.000     0.000     2.196     0.488   437.727   441.365     0.000     0.087     0.004     0.044     0.000     0.000  1001.519  2000.717     0.000     0.000     0.000     0.124     0.119     1.008    97.718    10.850    20.000     1.700     3.297     9.981     0.000     0.000     3.432     0.758     0.358     0.434     0.458   799.668     3.297
CORN    1 000010001    1    0   52.61900E-01     0.000     0.000     0.000     0.000     1.516     0.368   441.365   443.168     0.000     0.084     0.004     0.030     0.000     0.000  1001.451  2000.714     0.000     0.000     0.000     0.125     0.118     1.087    97.797     4.150    11.100    -2.800     3.487    13.474     0.000     0.000     3.572     0.837     0.377     0.434     0.458   858.463     3.487
CORN    1 000010001    1    0   53.61900E-01     0.000     0.000     0.000     0.000     0.915     0.239   443.168   445.532     0.000     0.082     0.004     0.018     0.000     0.000  1001.395  2000.711     0.000     0.000     0.000     0.124     0.116     0.990    97.835     1.700     5.600    -2.200     3.120    10.535     0.000     0.000     3.160     0.743     0.400     0.434     0.458   883.123     3.120
CORN    1 000010001    1    0   54.61900E-01     0.000     0.000     0.000     0.000     1.491     0.443   445.532   446.103     0.000     0.079     0.004     0.030     0.000     0.000  1001.327  2000.708     0.000     0.000     0.000     0.124     0.114     0.888    97.883     3.850     9.400    -1.700     3.309     8.622     0.000     0.000     3.349     0.643     0.401     0.434     0.458   887.887     3.309
CORN    1 000010001    1    0   55.61900E-01    24.900     0.000     0.000     0.000     0.097     0.047   446.103   451.450     3.472     0.187     0.009     0.002     0.000     0.000  1001.385  2000.710    12.530    11.728     0.000     0.131     0.117    13.303    97.895     1.700     5.600    -2.200     2.506     2.674     0.786     0.016     2.468     1.321     0.402     0.434     0.458   790.112     2.506
CORN    1 000010001    1    0   56.61900E-01    13.200    13.200     0.000     0.000     0.786     0.393   451.450   450.040     0.000     0.181     0.009     0.016     0.000     0.000  1001.422  2000.712     0.000     0.751     0.000     0.130     0.119     2.234    98.001    -2.500     0.000    -5.000     0.127     2.880     0.000     0.000    -0.083     1.226     0.402     0.434     0.458   865.876     0.127
CORN    1 000010001    1    0   57.61900E-01     2.300     2.300     0.371     0.000     0.000     0.000   450.040   449.960     0.000     0.175     0.009     0.000     0.000     0.000  1001.467  2000.714     0.000     0.048     0.000     0.130     0.122     1.336    97.974    -2.200     0.600    -5.000     1.843     6.118     0.000     0.000    -2.286     1.030     0.402     0.434     0.458   886.005     1.843
CORN    1 000010001    1    0   58.61900E-01     0.000     0.000     6.377     0.000     0.707     0.354   449.960   451.168     0.079     0.172     0.009     0.014     0.000     0.000  1001.493  2000.715     2.532     2.373     0.000     0.134     0.124     3.951    97.972     1.150     5.600    -3.300     2.307     9.198     0.139     0.000    -1.202     1.313     0.402     0.434     0.458   823.872     2.307
CORN    1 000010001    1    0   59.61900E-01     0.000     0.000     8.398     0.000     2.859     1.407   451.168   450.060     0.000     0.167     0.008     0.057     0.000     0.000  1001.469  2000.716     4.313     4.189     0.000     0.138     0.125     6.260    97.996     9.150    17.200     1.100     3.052    11.177     0.191     0.000     3.042     1.800     0.401     0.434     0.458   794.468     3.052
CORN    1 000010001    1    0   60.61900E-01     3.000     0.000     0.000     0.000     0.276     0.132   450.060   450.921     1.372     0.205     0.010     0.006     0.000     0.000  1001.529  2000.719     0.000     0.268     0.000     0.140     0.128     2.388    97.974     5.300    10.600     0.000     4.047     3.508     0.000     0.000     4.100     1.844     0.402     0.434     0.458   832.249     4.047
CORN    1 000010001    1    0   61.61900E-01     0.000     0.000     0.000     0.000     4.079     1.995   450.921   448.166     0.000     0.198     0.010     0.082     0.000     0.000  1001.505  2000.722     0.000     0.017     0.000     0.139     0.131     1.873    97.991     1.950    10.600    -6.700     3.801    15.106     0.000     0.000     3.760     1.578     0.399     0.434     0.458   874.647     3.801
CORN    1 000010001    1    0   62.61900E-01    13.200    13.200     0.000     0.000     0.727     0.272   448.166   447.604     0.000     0.192     0.010     0.015     0.000     0.000  1001.539  2000.724     0.000     0.001     0.000     0.138     0.134     1.564    97.936    -3.050     0.000    -6.100     2.158     8.362     0.000     0.000     1.962     1.283     0.398     0.434     0.458   889.714     2.158
CORN    1 000010001    1    0   63.61900E-01     0.000     0.000     0.000     0.000     1.165     0.452   447.604   446.970     0.000     0.186     0.009     0.023     0.000     0.000  1001.557  2000.726     0.000     0.000     0.000     0.137     0.136     1.296    97.925    -1.400     0.000    -2.800     2.830    15.981     0.000     0.000    -4.121     1.016     0.398     0.434     0.458   896.766     2.830
CORN    1 000010001    1    0   64.61900E-01     4.100     4.100     0.878     0.000     0.000     0.000   446.970   447.741     0.000     0.180     0.009     0.000     0.000     0.000  1001.591  2000.728     0.000     0.000     0.000     0.136     0.137     1.072    97.912    -0.800     0.600    -2.200     3.226    12.310     0.000     0.000    -2.489     0.791     0.402     0.434     0.458   900.391     3.226
CORN    1 000010001    1    0   65.61900E-01     0.000     0.000     3.482     0.000     0.535     0.280   447.741   449.530     1.576     0.224     0.011     0.011     0.000     0.000  1001.652  2000.732     0.000     0.000     0.000     0.135     0.141     0.900    97.928     0.550     2.800    -1.700     3.443    17.890     0.000     0.000    -3.408     0.616     0.402     0.434     0.458   902.492     3.443
CORN    1 000010001    1    0   66.61900E-01     0.000     0.000     9.237     0.000     1.753     0.908   449.530   451.153     0.003     0.217     0.011     0.035     0.000     0.000  1001.680  2000.735     4.956     4.639     0.000     0.140     0.144     5.932    97.964     2.750     7.200    -1.700     3.658    14.637     0.290     0.000    -1.658     1.002     0.402     0.434     0.458   822.603     3.658
CORN    1 000010001    1    0   67.61900E-01     0.000     0.000     2.559     0.000     4.568     2.249   451.153   448.843     0.008     0.211     0.011     0.091     0.000     0.000  1001.642  2000.738     0.305     0.583     0.000     0.142     0.147     2.124    97.995    10.850    16.100     5.600     4.153    17.454     0.000     0.000     3.106     1.246     0.400     0.434     0.458   829.425     4.153
CORN    1 000010001    1    0   68.61900E-01     0.000     0.000     0.000     0.000     4.934     1.766   448.843   446.295     0.000     0.204     0.010     0.099     0.000     0.000  1001.589  2000.741     0.000     0.037     0.000     0.141     0.149     1.451    97.950    16.700    21.700    11.700     6.160    15.267     0.000     0.000     6.252     1.117     0.396     0.433     0.458   873.902     6.160
CORN    1 000010001    1    0   69.61900E-01     0.000     0.000     0.000     0.000     4.059     1.225   446.295   444.707     0.000     0.198     0.010     0.081     0.000     0.000  1001.544  2000.744     0.000     0.002     0.000     0.140     0.151     1.226    97.899    16.650    21.100    12.200     7.950    14.331     0.000     0.000     8.118     0.925     0.393     0.431     0.458   889.404     7.950
CORN    1 000010001    1    0   70.61900E-01    15.500     0.000     0.000     0.000     1.035     0.511   444.707   450.921     4.254     0.326     0.016     0.021     0.000     0.000  1001.676  2000.752     0.903     0.845     0.000     0.145     0.158     2.611    97.866    10.300    15.000     5.600     9.054     2.877     0.033     0.191     9.231     1.455     0.402     0.434     0.458   798.941     9.054